---- qbsp / ericw-tools v0.18.1 ----
Input file: MultiplayerMapScaled.map
Output file: MultiplayerMapScaled.bsp

---- LoadMapFile ----
         4184 faces
          645 brushes
           25 entities
           13 unique texnames
          345 texinfo

Opened WAD: D:/Users/Andy/Documents/GitHub/Quake_Multiplayer_Map/wads/prototype_1_2.wad
Processing hull 0...
---- Brush_LoadEntity ----
          544 brushes
         1484 planes
---- CSGFaces ----
         3578 brushfaces
         4864 csgfaces
         3883 mergedfaces
---- SolidBSP ----
         6279 split nodes
         2392 solid leafs
         3550 empty leafs
          338 water leafs
            0 detail leafs
            0 detail illusionary leafs
            0 detail fence leafs
            0 illusionary visblocker leafs
        13448 leaffaces
        11804 nodefaces
---- Portalize ----
*** WARNING 12: New portal was clipped away in CutNodePortals_r near (852.000 -500.000 659.623)
*** WARNING 12: New portal was clipped away in CutNodePortals_r near (852.000 -500.000 659.657)
         3888 vis leafs
         3888 vis clusters
        12409 vis portals
---- FillOutside ----
          246 outleafs
---- MergeAll ----
         3971 mergefaces
---- SolidBSP ----
         3444 split nodes
         1351 solid leafs
         1906 empty leafs
          188 water leafs
            0 detail leafs
            0 detail illusionary leafs
            0 detail fence leafs
            0 illusionary visblocker leafs
         9775 leaffaces
         8067 nodefaces
---- Portalize ----
*** WARNING 12: New portal was clipped away in CutNodePortals_r near (852.000 -606.000 659.657)
*** WARNING 12: New portal was clipped away in CutNodePortals_r near (600.000 -480.000 816.000)
         2094 vis leafs
         2094 vis clusters
         7491 vis portals
---- Tjunc ----
         6972 world edges
        25970 edge points
         7392 edges added by tjunctions
            0 faces added by tjunctions
---- MakeFaceEdges ----
---- GrowRegions ----
Processing hull 1...
*** WARNING 19: No entities in empty space -- no filling performed (hull 1)
Processing hull 2...
*** WARNING 19: No entities in empty space -- no filling performed (hull 2)
---- WriteBSPFile ----
Wrote MultiplayerMapScaled.bsp
         3756 planes            75120
        10236 vertexes         122832
         3444 nodes             82656
          255 texinfo           10200
         8067 faces            161340
        12605 clipnodes        100840
         2095 leafs             58660
         9775 marksurfaces      19550
        39196 surfedges        156784
        19622 edges             78488
           13 textures         190976
              lightdata             0
              visdata               0
              entdata            1941

1.068 seconds elapsed
Peak memory usage: 57786258 (55.1M)
