---- qbsp / ericw-tools v0.18.1 ----
Input file: MultiplayerMap.map
Output file: MultiplayerMap.bsp

---- LoadMapFile ----
*** WARNING 06: No info_player_deathmatch entities in level
         2899 faces
          444 brushes
            5 entities
            7 unique texnames
          248 texinfo

Opened WAD: D:/Users/Andy/Documents/GitHub/Quake_Multiplayer_Map/wads/prototype_1_2.wad
Processing hull 0...
---- Brush_LoadEntity ----
          372 brushes
         1041 planes
---- CSGFaces ----
         2467 brushfaces
         2811 csgfaces
         2245 mergedfaces
---- SolidBSP ----
         3588 split nodes
         1331 solid leafs
         2209 empty leafs
           49 water leafs
            0 detail leafs
            0 detail illusionary leafs
            0 detail fence leafs
            0 illusionary visblocker leafs
        12615 leaffaces
        11490 nodefaces
---- Portalize ----
         2258 vis leafs
         2258 vis clusters
         7436 vis portals
---- FillOutside ----
*** WARNING 10: Reached occupant at (656 -1568 796), no filling performed.
Leak file written to MultiplayerMap.pts
---- MakeFaceEdges ----
---- GrowRegions ----
Processing hull 1...
Processing hull 2...
---- WriteBSPFile ----
Wrote MultiplayerMap.bsp
         2269 planes            45380
        14303 vertexes         171636
         3588 nodes             86112
          169 texinfo            6760
        11490 faces            229800
         6867 clipnodes         54936
         2259 leafs             63252
        12615 marksurfaces      25230
        45617 surfedges        182468
        28671 edges            114684
            7 textures          87352
              lightdata             0
              visdata               0
              entdata             187

0.751 seconds elapsed
Peak memory usage: 46610042 (44.5M)
