---- qbsp / ericw-tools v0.18.1 ----
Input file: MultiplayerMap.map
Output file: MultiplayerMap.bsp

---- LoadMapFile ----
         3988 faces
          618 brushes
           12 entities
            7 unique texnames
          266 texinfo

Opened WAD: D:/Users/Andy/Documents/GitHub/Quake_Multiplayer_Map/wads/prototype_1_2.wad
Processing hull 0...
---- Brush_LoadEntity ----
          518 brushes
         1332 planes
---- CSGFaces ----
         3388 brushfaces
         4274 csgfaces
         3374 mergedfaces
---- SolidBSP ----
         5322 split nodes
         2146 solid leafs
         3104 empty leafs
           73 water leafs
            0 detail leafs
            0 detail illusionary leafs
            0 detail fence leafs
            0 illusionary visblocker leafs
        15108 leaffaces
        13566 nodefaces
---- Portalize ----
         3177 vis leafs
         3177 vis clusters
        10211 vis portals
---- FillOutside ----
*** WARNING 10: Reached occupant at (2656 -2112 1128), no filling performed.
Leak file written to MultiplayerMap.pts
---- MakeFaceEdges ----
---- GrowRegions ----
Processing hull 1...
*** WARNING 19: No entities in empty space -- no filling performed (hull 1)
Processing hull 2...
*** WARNING 19: No entities in empty space -- no filling performed (hull 2)
---- WriteBSPFile ----
Wrote MultiplayerMap.bsp
         3005 planes            60100
        16697 vertexes         200364
         5322 nodes            127728
          195 texinfo            7800
        13566 faces            271320
        11674 clipnodes         93392
         3178 leafs             88984
        15108 marksurfaces      30216
        53760 surfedges        215040
        34755 edges            139020
            7 textures          87352
              lightdata             0
              visdata               0
              entdata             724

0.828 seconds elapsed
Peak memory usage: 65554776 (62.5M)
