---- qbsp / ericw-tools v0.18.1 ----
Input file: Reactor.map
Output file: Reactor.bsp

---- LoadMapFile ----
*** WARNING 06: No info_player_deathmatch entities in level
         2682 faces
          404 brushes
            5 entities
            6 unique texnames
          221 texinfo

Opened WAD: D:/Users/Andy/Documents/GitHub/Quake_Multiplayer_Map/wads/prototype_1_2.wad
Processing hull 0...
---- Brush_LoadEntity ----
************ ERROR ************
CheckFace: coordinate out of range (-65536.316546)
