---- qbsp / ericw-tools v0.18.1 ----
Input file: reactor.map
Output file: reactor.bsp

---- LoadMapFile ----
         3819 faces
          574 brushes
          232 entities
           61 unique texnames
          744 texinfo

Opened WAD: D:/Users/Andy/Documents/GitHub/Quake_Multiplayer_Map/wads/prototype_1_2.wad
Opened WAD: D:/Users/Andy/Documents/GitHub/Quake_Multiplayer_Map/wads/id1.wad
Opened WAD: D:/Users/Andy/Documents/GitHub/Quake_Multiplayer_Map/wads/hipnotic.wad
Opened WAD: D:/Users/Andy/Documents/GitHub/Quake_Multiplayer_Map/wads/rogue.wad
Processing hull 0...
---- Brush_LoadEntity ----
          529 brushes
         1471 planes
---- CSGFaces ----
         3547 brushfaces
         4515 csgfaces
         3571 mergedfaces
---- SolidBSP ----
         6033 split nodes
         2336 solid leafs
         3413 empty leafs
          285 water leafs
            0 detail leafs
            0 detail illusionary leafs
            0 detail fence leafs
            0 illusionary visblocker leafs
        11936 leaffaces
        10362 nodefaces
---- Portalize ----
         3698 vis leafs
         3698 vis clusters
        12084 vis portals
---- FillOutside ----
          186 outleafs
---- MergeAll ----
         3637 mergefaces
---- SolidBSP ----
         2946 split nodes
         1157 solid leafs
         1613 empty leafs
          177 water leafs
            0 detail leafs
            0 detail illusionary leafs
            0 detail fence leafs
            0 illusionary visblocker leafs
         8369 leaffaces
         6489 nodefaces
---- Portalize ----
         1790 vis leafs
         1790 vis clusters
         6371 vis portals
---- Tjunc ----
         5993 world edges
        20877 edge points
         5788 edges added by tjunctions
            0 faces added by tjunctions
---- MakeFaceEdges ----
---- GrowRegions ----
Processing hull 1...
Processing hull 2...
*** WARNING 16: Texture __TB_empty not found
---- WriteBSPFile ----
Wrote reactor.bsp
         3458 planes            69160
         7973 vertexes          95676
         2946 nodes             70704
          558 texinfo           22320
         6489 faces            129780
         8056 clipnodes         64448
         1791 leafs             50148
         8369 marksurfaces      16738
        31258 surfedges        125032
        15633 edges             62532
           61 textures         625528
              lightdata             0
              visdata               0
              entdata           21449

1.252 seconds elapsed
Peak memory usage: 42814414 (40.8M)
